powerfulcases/cases/matpower/case51he/case51he.raw
0, 1, 33, 0, 0, 60  / 28-Jan-2026 21:52:37 - MATPOWER 8.1


     1, 'BUS 1       ',        22, 3,    1,    1, 1,           1,           0,    1,    1,    1,    1
     2, 'BUS 2       ',        22, 1,    1,    1, 1,           1,           0,  1.1,  0.9,  1.1,  0.9
     3, 'BUS 3       ',        22, 1,    1,    1, 1,           1,           0,  1.1,  0.9,  1.1,  0.9
     4, 'BUS 4       ',        22, 1,    1,    1, 1,           1,           0,  1.1,  0.9,  1.1,  0.9
     5, 'BUS 5       ',        22, 1,    1,    1, 1,           1,           0,  1.1,  0.9,  1.1,  0.9
     6, 'BUS 6       ',        22, 1,    1,    1, 1,           1,           0,  1.1,  0.9,  1.1,  0.9
     7, 'BUS 7       ',        22, 1,    1,    1, 1,           1,           0,  1.1,  0.9,  1.1,  0.9
     8, 'BUS 8       ',        22, 1,    1,    1, 1,           1,           0,  1.1,  0.9,  1.1,  0.9
     9, 'BUS 9       ',        22, 1,    1,    1, 1,           1,           0,  1.1,  0.9,  1.1,  0.9
    10, 'BUS 10      ',        22, 1,    1,    1, 1,           1,           0,  1.1,  0.9,  1.1,  0.9
    11, 'BUS 11      ',        22, 1,    1,    1, 1,           1,           0,  1.1,  0.9,  1.1,  0.9
    12, 'BUS 12      ',        22, 1,    1,    1, 1,           1,           0,  1.1,  0.9,  1.1,  0.9
    13, 'BUS 13      ',        22, 1,    1,    1, 1,           1,           0,  1.1,  0.9,  1.1,  0.9
    14, 'BUS 14      ',        22, 1,    1,    1, 1,           1,           0,  1.1,  0.9,  1.1,  0.9
    15, 'BUS 15      ',        22, 1,    1,    1, 1,           1,           0,  1.1,  0.9,  1.1,  0.9
    16, 'BUS 16      ',        22, 1,    1,    1, 1,           1,           0,  1.1,  0.9,  1.1,  0.9
    17, 'BUS 17      ',        22, 1,    1,    1, 1,           1,           0,  1.1,  0.9,  1.1,  0.9
    18, 'BUS 18      ',        22, 1,    1,    1, 1,           1,           0,  1.1,  0.9,  1.1,  0.9
    19, 'BUS 19      ',        22, 1,    1,    1, 1,           1,           0,  1.1,  0.9,  1.1,  0.9
    20, 'BUS 20      ',        22, 1,    1,    1, 1,           1,           0,  1.1,  0.9,  1.1,  0.9
    21, 'BUS 21      ',        22, 1,    1,    1, 1,           1,           0,  1.1,  0.9,  1.1,  0.9
    22, 'BUS 22      ',        22, 1,    1,    1, 1,           1,           0,  1.1,  0.9,  1.1,  0.9
    23, 'BUS 23      ',        22, 1,    1,    1, 1,           1,           0,  1.1,  0.9,  1.1,  0.9
    24, 'BUS 24      ',        22, 1,    1,    1, 1,           1,           0,  1.1,  0.9,  1.1,  0.9
    25, 'BUS 25      ',        22, 1,    1,    1, 1,           1,           0,  1.1,  0.9,  1.1,  0.9
    26, 'BUS 26      ',        22, 1,    1,    1, 1,           1,           0,  1.1,  0.9,  1.1,  0.9
    27, 'BUS 27      ',        22, 1,    1,    1, 1,           1,           0,  1.1,  0.9,  1.1,  0.9
    28, 'BUS 28      ',        22, 1,    1,    1, 1,           1,           0,  1.1,  0.9,  1.1,  0.9
    29, 'BUS 29      ',        22, 1,    1,    1, 1,           1,           0,  1.1,  0.9,  1.1,  0.9
    30, 'BUS 30      ',        22, 1,    1,    1, 1,           1,           0,  1.1,  0.9,  1.1,  0.9
    31, 'BUS 31      ',        22, 1,    1,    1, 1,           1,           0,  1.1,  0.9,  1.1,  0.9
    32, 'BUS 32      ',        22, 1,    1,    1, 1,           1,           0,  1.1,  0.9,  1.1,  0.9
    33, 'BUS 33      ',        22, 1,    1,    1, 1,           1,           0,  1.1,  0.9,  1.1,  0.9
    34, 'BUS 34      ',        22, 1,    1,    1, 1,           1,           0,  1.1,  0.9,  1.1,  0.9
    35, 'BUS 35      ',        22, 1,    1,    1, 1,           1,           0,  1.1,  0.9,  1.1,  0.9
    36, 'BUS 36      ',        22, 1,    1,    1, 1,           1,           0,  1.1,  0.9,  1.1,  0.9
    37, 'BUS 37      ',        22, 1,    1,    1, 1,           1,           0,  1.1,  0.9,  1.1,  0.9
    38, 'BUS 38      ',        22, 1,    1,    1, 1,           1,           0,  1.1,  0.9,  1.1,  0.9
    39, 'BUS 39      ',        22, 1,    1,    1, 1,           1,           0,  1.1,  0.9,  1.1,  0.9
    40, 'BUS 40      ',        22, 1,    1,    1, 1,           1,           0,  1.1,  0.9,  1.1,  0.9
    41, 'BUS 41      ',        22, 1,    1,    1, 1,           1,           0,  1.1,  0.9,  1.1,  0.9
    42, 'BUS 42      ',        22, 1,    1,    1, 1,           1,           0,  1.1,  0.9,  1.1,  0.9
    43, 'BUS 43      ',        22, 1,    1,    1, 1,           1,           0,  1.1,  0.9,  1.1,  0.9
    44, 'BUS 44      ',        22, 1,    1,    1, 1,           1,           0,  1.1,  0.9,  1.1,  0.9
    45, 'BUS 45      ',        22, 1,    1,    1, 1,           1,           0,  1.1,  0.9,  1.1,  0.9
    46, 'BUS 46      ',        22, 1,    1,    1, 1,           1,           0,  1.1,  0.9,  1.1,  0.9
    47, 'BUS 47      ',        22, 1,    1,    1, 1,           1,           0,  1.1,  0.9,  1.1,  0.9
    48, 'BUS 48      ',        22, 1,    1,    1, 1,           1,           0,  1.1,  0.9,  1.1,  0.9
    49, 'BUS 49      ',        22, 1,    1,    1, 1,           1,           0,  1.1,  0.9,  1.1,  0.9
    50, 'BUS 50      ',        22, 1,    1,    1, 1,           1,           0,  1.1,  0.9,  1.1,  0.9
    51, 'BUS 51      ',        22, 1,    1,    1, 1,           1,           0,  1.1,  0.9,  1.1,  0.9
0 / END OF BUS DATA, BEGIN LOAD DATA
     2,  1, 1,    1,    1,   0.01458,   0.00807, 0, 0, 0, 0, 1, 1, 0
     6,  1, 1,    1,    1,   0.01458,   0.00807, 0, 0, 0, 0, 1, 1, 0
     9,  1, 1,    1,    1,   0.05833,   0.03227, 0, 0, 0, 0, 1, 1, 0
    12,  1, 1,    1,    1,      0.02,     0.015, 0, 0, 0, 0, 1, 1, 0
    16,  1, 1,    1,    1,   0.02917,   0.01614, 0, 0, 0, 0, 1, 1, 0
    17,  1, 1,    1,    1,   0.07292,   0.04034, 0, 0, 0, 0, 1, 1, 0
    18,  1, 1,    1,    1,      0.02,     0.015, 0, 0, 0, 0, 1, 1, 0
    19,  1, 1,    1,    1,   0.14567,   0.08069, 0, 0, 0, 0, 1, 1, 0
    20,  1, 1,    1,    1,   0.06288,   0.03333, 0, 0, 0, 0, 1, 1, 0
    21,  1, 1,    1,    1,   0.01458,   0.00807, 0, 0, 0, 0, 1, 1, 0
    22,  1, 1,    1,    1,   0.09479,   0.05245, 0, 0, 0, 0, 1, 1, 0
    23,  1, 1,    1,    1,   0.01458,   0.00807, 0, 0, 0, 0, 1, 1, 0
    25,  1, 1,    1,    1,   0.01458,   0.00807, 0, 0, 0, 0, 1, 1, 0
    26,  1, 1,    1,    1,     0.035,   0.01936, 0, 0, 0, 0, 1, 1, 0
    27,  1, 1,    1,    1,   0.02917,   0.01614, 0, 0, 0, 0, 1, 1, 0
    28,  1, 1,    1,    1,   0.02917,   0.01614, 0, 0, 0, 0, 1, 1, 0
    29,  1, 1,    1,    1,   0.09188,   0.05083, 0, 0, 0, 0, 1, 1, 0
    30,  1, 1,    1,    1,    0.0859,   0.03683, 0, 0, 0, 0, 1, 1, 0
    31,  1, 1,    1,    1,   0.02917,   0.01614, 0, 0, 0, 0, 1, 1, 0
    32,  1, 1,    1,    1,   0.01458,   0.00807, 0, 0, 0, 0, 1, 1, 0
    33,  1, 1,    1,    1,   0.04375,   0.02421, 0, 0, 0, 0, 1, 1, 0
    34,  1, 1,    1,    1,   0.04375,   0.02421, 0, 0, 0, 0, 1, 1, 0
    36,  1, 1,    1,    1,   0.14583,   0.08069, 0, 0, 0, 0, 1, 1, 0
    37,  1, 1,    1,    1,   0.09188,   0.05083, 0, 0, 0, 0, 1, 1, 0
    38,  1, 1,    1,    1,   0.02917,   0.01614, 0, 0, 0, 0, 1, 1, 0
    39,  1, 1,    1,    1,   0.05833,   0.03227, 0, 0, 0, 0, 1, 1, 0
    40,  1, 1,    1,    1,   0.01458,   0.00807, 0, 0, 0, 0, 1, 1, 0
    41,  1, 1,    1,    1,   0.02917,   0.01614, 0, 0, 0, 0, 1, 1, 0
    42,  1, 1,    1,    1,   0.02917,   0.01614, 0, 0, 0, 0, 1, 1, 0
    43,  1, 1,    1,    1,   0.02917,   0.01614, 0, 0, 0, 0, 1, 1, 0
    44,  1, 1,    1,    1,   0.14875,    0.0823, 0, 0, 0, 0, 1, 1, 0
    45,  1, 1,    1,    1,   0.02917,   0.01614, 0, 0, 0, 0, 1, 1, 0
    47,  1, 1,    1,    1,   0.02917,   0.01614, 0, 0, 0, 0, 1, 1, 0
    48,  1, 1,    1,    1,   0.05833,   0.03227, 0, 0, 0, 0, 1, 1, 0
    49,  1, 1,    1,    1,   0.04375,   0.02421, 0, 0, 0, 0, 1, 1, 0
    50,  1, 1,    1,    1,   0.11667,   0.06455, 0, 0, 0, 0, 1, 1, 0
    51,  1, 1,    1,    1,   0.09188,   0.05083, 0, 0, 0, 0, 1, 1, 0
0 / END OF LOAD DATA, BEGIN FIXED SHUNT DATA
0 / END OF FIXED SHUNT DATA, BEGIN GENERATOR DATA
     1,  1,         0,         0,        10,       -10,        1, 0,     100, 0, 1, 0, 0, 1, 1, 100,        10,         0, 1, 1, 0, 1, 0, 1, 0, 1, 0, 1
0 / END OF GENERATOR DATA, BEGIN BRANCH DATA
     1,      2, 1, 0.0008706612, 0.001515289,        0,       0,       0,       0, 0, 0, 0, 0, 1, 1, 0, 1, 1, 0, 1, 0, 1, 0, 1
     2,      3, 1, 0.0008706612, 0.001515289,        0,       0,       0,       0, 0, 0, 0, 0, 1, 1, 0, 1, 1, 0, 1, 0, 1, 0, 1
     3,      4, 1, 0.0004353306, 0.0007576446,        0,       0,       0,       0, 0, 0, 0, 0, 1, 1, 0, 1, 1, 0, 1, 0, 1, 0, 1
     4,      5, 1, 0.0008706612, 0.001515289,        0,       0,       0,       0, 0, 0, 0, 0, 1, 1, 0, 1, 1, 0, 1, 0, 1, 0, 1
     5,      6, 1, 0.0004353306, 0.0007576446,        0,       0,       0,       0, 0, 0, 0, 0, 1, 1, 0, 1, 1, 0, 1, 0, 1, 0, 1
     6,      7, 1, 0.0004353306, 0.0007576446,        0,       0,       0,       0, 0, 0, 0, 0, 1, 1, 0, 1, 1, 0, 1, 0, 1, 0, 1
     7,      8, 1, 0.0008706612, 0.001515289,        0,       0,       0,       0, 0, 0, 0, 0, 1, 1, 0, 1, 1, 0, 1, 0, 1, 0, 1
     8,      9, 1, 0.0008706612, 0.001515289,        0,       0,       0,       0, 0, 0, 0, 0, 1, 1, 0, 1, 1, 0, 1, 0, 1, 0, 1
     9,     10, 1, 0.0008256198, 0.00138874,        0,       0,       0,       0, 0, 0, 0, 0, 1, 1, 0, 1, 1, 0, 1, 0, 1, 0, 1
    10,     11, 1, 0.001100826, 0.001851653,        0,       0,       0,       0, 0, 0, 0, 0, 1, 1, 0, 1, 1, 0, 1, 0, 1, 0, 1
    11,     12, 1, 0.0005504132, 0.0009258264,        0,       0,       0,       0, 0, 0, 0, 0, 1, 1, 0, 1, 1, 0, 1, 0, 1, 0, 1
    12,     13, 1, 0.00165124, 0.002777479,        0,       0,       0,       0, 0, 0, 0, 0, 1, 1, 0, 1, 1, 0, 1, 0, 1, 0, 1
    13,     14, 1, 0.001100826, 0.001851653,        0,       0,       0,       0, 0, 0, 0, 0, 1, 1, 0, 1, 1, 0, 1, 0, 1, 0, 1
    14,     15, 1, 0.003443698, 0.00227686,        0,       0,       0,       0, 0, 0, 0, 0, 1, 1, 0, 1, 1, 0, 1, 0, 1, 0, 1
    15,     16, 1, 0.004132438, 0.002732231,        0,       0,       0,       0, 0, 0, 0, 0, 1, 1, 0, 1, 1, 0, 1, 0, 1, 0, 1
    16,     17, 1, 0.001377479, 0.0009107438,        0,       0,       0,       0, 0, 0, 0, 0, 1, 1, 0, 1, 1, 0, 1, 0, 1, 0, 1
    17,     18, 1, 0.002754959, 0.001821488,        0,       0,       0,       0, 0, 0, 0, 0, 1, 1, 0, 1, 1, 0, 1, 0, 1, 0, 1
    18,     19, 1, 0.001377479, 0.0009107438,        0,       0,       0,       0, 0, 0, 0, 0, 1, 1, 0, 1, 1, 0, 1, 0, 1, 0, 1
     3,     20, 1, 0.01101983, 0.00728595,        0,       0,       0,       0, 0, 0, 0, 0, 1, 1, 0, 1, 1, 0, 1, 0, 1, 0, 1
     4,     21, 1, 0.002754959, 0.001821488,        0,       0,       0,       0, 0, 0, 0, 0, 1, 1, 0, 1, 1, 0, 1, 0, 1, 0, 1
     5,     22, 1, 0.006887397, 0.004553719,        0,       0,       0,       0, 0, 0, 0, 0, 1, 1, 0, 1, 1, 0, 1, 0, 1, 0, 1
    22,     23, 1, 0.005509917, 0.003642975,        0,       0,       0,       0, 0, 0, 0, 0, 1, 1, 0, 1, 1, 0, 1, 0, 1, 0, 1
    23,     24, 1, 0.001377479, 0.0009107438,        0,       0,       0,       0, 0, 0, 0, 0, 1, 1, 0, 1, 1, 0, 1, 0, 1, 0, 1
    24,     25, 1, 0.01377479, 0.009107438,        0,       0,       0,       0, 0, 0, 0, 0, 1, 1, 0, 1, 1, 0, 1, 0, 1, 0, 1
    25,     26, 1, 0.002754959, 0.001821488,        0,       0,       0,       0, 0, 0, 0, 0, 1, 1, 0, 1, 1, 0, 1, 0, 1, 0, 1
    26,     27, 1, 0.004132438, 0.002732231,        0,       0,       0,       0, 0, 0, 0, 0, 1, 1, 0, 1, 1, 0, 1, 0, 1, 0, 1
    23,     28, 1, 0.01101983, 0.00728595,        0,       0,       0,       0, 0, 0, 0, 0, 1, 1, 0, 1, 1, 0, 1, 0, 1, 0, 1
    24,     29, 1, 0.002754959, 0.001821488,        0,       0,       0,       0, 0, 0, 0, 0, 1, 1, 0, 1, 1, 0, 1, 0, 1, 0, 1
     7,     30, 1, 0.0103311, 0.006830579,        0,       0,       0,       0, 0, 0, 0, 0, 1, 1, 0, 1, 1, 0, 1, 0, 1, 0, 1
    30,     31, 1, 0.001377479, 0.0009107438,        0,       0,       0,       0, 0, 0, 0, 0, 1, 1, 0, 1, 1, 0, 1, 0, 1, 0, 1
    31,     32, 1, 0.002754959, 0.001821488,        0,       0,       0,       0, 0, 0, 0, 0, 1, 1, 0, 1, 1, 0, 1, 0, 1, 0, 1
    32,     33, 1, 0.002754959, 0.001821488,        0,       0,       0,       0, 0, 0, 0, 0, 1, 1, 0, 1, 1, 0, 1, 0, 1, 0, 1
    33,     34, 1, 0.002066219, 0.001366116,        0,       0,       0,       0, 0, 0, 0, 0, 1, 1, 0, 1, 1, 0, 1, 0, 1, 0, 1
    34,     35, 1, 0.002754959, 0.001821488,        0,       0,       0,       0, 0, 0, 0, 0, 1, 1, 0, 1, 1, 0, 1, 0, 1, 0, 1
    35,     36, 1, 0.004821178, 0.003187603,        0,       0,       0,       0, 0, 0, 0, 0, 1, 1, 0, 1, 1, 0, 1, 0, 1, 0, 1
    36,     37, 1, 0.002754959, 0.001821488,        0,       0,       0,       0, 0, 0, 0, 0, 1, 1, 0, 1, 1, 0, 1, 0, 1, 0, 1
    37,     38, 1, 0.002066219, 0.001366116,        0,       0,       0,       0, 0, 0, 0, 0, 1, 1, 0, 1, 1, 0, 1, 0, 1, 0, 1
    30,     39, 1, 0.004132438, 0.002732231,        0,       0,       0,       0, 0, 0, 0, 0, 1, 1, 0, 1, 1, 0, 1, 0, 1, 0, 1
    35,     40, 1, 0.002754959, 0.001821488,        0,       0,       0,       0, 0, 0, 0, 0, 1, 1, 0, 1, 1, 0, 1, 0, 1, 0, 1
     8,     41, 1, 0.002066219, 0.001366116,        0,       0,       0,       0, 0, 0, 0, 0, 1, 1, 0, 1, 1, 0, 1, 0, 1, 0, 1
     9,     42, 1, 0.002754959, 0.001821488,        0,       0,       0,       0, 0, 0, 0, 0, 1, 1, 0, 1, 1, 0, 1, 0, 1, 0, 1
    10,     43, 1, 0.008264876, 0.005464463,        0,       0,       0,       0, 0, 0, 0, 0, 1, 1, 0, 1, 1, 0, 1, 0, 1, 0, 1
    11,     44, 1, 0.002754959, 0.001821488,        0,       0,       0,       0, 0, 0, 0, 0, 1, 1, 0, 1, 1, 0, 1, 0, 1, 0, 1
    12,     45, 1, 0.009642355, 0.006375207,        0,       0,       0,       0, 0, 0, 0, 0, 1, 1, 0, 1, 1, 0, 1, 0, 1, 0, 1
    14,     46, 1, 0.001377479, 0.0009107438,        0,       0,       0,       0, 0, 0, 0, 0, 1, 1, 0, 1, 1, 0, 1, 0, 1, 0, 1
    46,     47, 1, 0.004132438, 0.002732231,        0,       0,       0,       0, 0, 0, 0, 0, 1, 1, 0, 1, 1, 0, 1, 0, 1, 0, 1
    47,     48, 1, 0.004132438, 0.002732231,        0,       0,       0,       0, 0, 0, 0, 0, 1, 1, 0, 1, 1, 0, 1, 0, 1, 0, 1
    46,     49, 1, 0.0002754959, 0.0001821488,        0,       0,       0,       0, 0, 0, 0, 0, 1, 1, 0, 1, 1, 0, 1, 0, 1, 0, 1
    15,     50, 1, 0.009642355, 0.006375207,        0,       0,       0,       0, 0, 0, 0, 0, 1, 1, 0, 1, 1, 0, 1, 0, 1, 0, 1
    17,     51, 1, 0.005509917, 0.003642975,        0,       0,       0,       0, 0, 0, 0, 0, 1, 1, 0, 1, 1, 0, 1, 0, 1, 0, 1
0 / END OF BRANCH DATA, BEGIN TRANSFORMER DATA
0 / END OF TRANSFORMER DATA, BEGIN AREA DATA
0 / END OF AREA DATA, BEGIN TWO-TERMINAL DC DATA
0 / END OF TWO-TERMINAL DC DATA, BEGIN VOLTAGE SOURCE CONVERTER DATA
0 / END OF VOLTAGE SOURCE CONVERTER DATA, BEGIN IMPEDANCE CORRECTION DATA
0 / END OF IMPEDANCE CORRECTION DATA, BEGIN MULTI-TERMINAL DC DATA
0 / END OF MULTI-TERMINAL DC DATA, BEGIN MULTI-SECTION LINE DATA
0 / END OF MULTI-SECTION LINE DATA, BEGIN ZONE DATA
0 / END OF ZONE DATA, BEGIN INTER-AREA TRANSFER DATA
0 / END OF INTER-AREA TRANSFER DATA, BEGIN OWNER DATA
0 / END OF OWNER DATA, BEGIN FACTS CONTROL DEVICE DATA
0 / END OF FACTS CONTROL DEVICE DATA, BEGIN SWITCHED SHUNT DATA
0 / END OF SWITCHED SHUNT DATA, BEGIN GNE DEVICE DATA
0 / END OF GNE DEVICE DATA, BEGIN INDUCTION MACHINE DATA
0 / END OF INDUCTION MACHINE DATA
Q
